<?xml version="1.0" encoding="UTF-8"?>

<!-- generated on 06/23/20 20:13:48 by Eclipse SUMO polyconvert Version 1.3.1
<configuration xmlns:xsi="http://www.w3.org/2001/XMLSchema-instance" xsi:noNamespaceSchemaLocation="http://sumo.dlr.de/xsd/polyconvertConfiguration.xsd">

    <input>
        <net-file value="map.net.xml"/>
        <osm-files value="map.osm"/>
        <type-file value="typemap.xml"/>
    </input>

    <output>
        <output-file value="map.poly.xml"/>
    </output>

    <processing>
        <poi-layer-offset value="5"/>
    </processing>

</configuration>
-->

<additional xmlns:xsi="http://www.w3.org/2001/XMLSchema-instance" xsi:noNamespaceSchemaLocation="http://sumo.dlr.de/xsd/additional_file.xsd">
    <location netOffset="-698068.77,-2791161.28" convBoundary="-2897.78,-0.00,6937.83,13277.76" origBoundary="82.938469,25.223491,83.036911,25.342583" projParameter="+proj=utm +zone=44 +ellps=WGS84 +datum=WGS84 +units=m +no_defs"/>

    <poly id="26681638" type="amenity" color="237,199,199" fill="1" layer="-1.00" shape="3767.021779,5989.455673 3787.612905,5985.475414 3850.710972,5983.992066 3934.671712,5969.137113 4008.236934,5946.803182 4081.683262,5910.218841 4305.047369,5769.522264 4023.064388,5697.811496 4003.771487,5608.239472 3697.281354,5677.562133 3684.941857,5682.829218 3671.917587,5649.627159 3666.036139,5643.412041 3658.423091,5641.835776 3642.501462,5646.129760 3602.482243,5641.587714 3465.086954,5658.960456 3449.865142,5655.520142 3438.623865,5641.203211 3427.611203,5631.820326 3408.942915,5613.581101 3385.828737,5519.199977 3365.687784,5446.336395 3355.015425,5428.305147 3339.407117,5360.894120 3335.705570,5336.839561 3325.122324,5210.092307 3325.010703,5193.248981 3316.336246,5149.985082 3306.781761,5111.007133 3288.162970,5063.694881 3233.421121,4953.740853 3212.029093,4904.537073 3193.209493,4816.547245 3190.624289,4745.242014 3187.314252,4686.069703 3183.833925,4674.860286 3153.397829,4586.797307 3091.764481,4287.749771 3038.067966,4097.028265 3028.411992,4016.665368 3026.552865,3872.752795 3019.944433,3792.734442 3005.424781,3736.520149 2972.060008,3689.975455 2935.466049,3584.780776 2919.994791,3448.843049 2902.889759,3394.994879 2894.039577,3378.941389 2871.404865,3326.285288 2864.784036,3308.702680 2855.619743,3277.841702 2841.327619,3239.447712 2832.723715,3231.220404 2824.287376,3209.001580 2730.015636,3246.791122 2704.712816,3257.041070 2685.695705,3203.630245 2649.158627,3213.137347 2649.525018,3248.188722 2279.263956,3300.246532 2266.678502,3257.413352 2209.080865,3265.667780 2030.954423,3307.704730 1973.911284,3317.331166 1855.458813,3312.288402 1799.779942,3299.166514 1774.755452,3294.741369 1720.551437,3295.679859 1696.598558,3292.378686 1673.056384,3292.651352 1655.146965,3295.644279 1562.956036,3292.454596 1562.799533,3289.405314 1506.490566,3292.330123 1490.628309,3290.434011 1455.504805,3291.644114 1476.274322,3538.622247 1487.015953,3647.120008 1503.204428,3891.017027 1505.202186,3957.027331 1519.132054,3997.619251 1511.665161,4106.169607 1511.729978,4107.921189 1520.661207,4365.539013 1523.952326,4414.217337 1516.096827,4449.468393 1491.711859,4462.603616 1509.324229,4585.363185 1542.230463,4641.270933 1609.046102,4963.309835 1702.985360,5235.192782 1760.416353,5446.029122 1780.066318,5626.191593 1781.166263,5739.101423 1808.740448,5946.028597 1861.150092,6176.513948 1911.297200,6341.273106 1945.331705,6296.759269 1972.274813,6278.732373 2001.157057,6267.858673 2032.337749,6263.002272 2093.478359,6267.010752 2330.694909,6302.173319 2350.748629,6305.141205 2394.908428,6306.151225 2425.596260,6301.931049 2559.129181,6227.273854 2770.957245,6133.184247 2847.817696,6164.731067 2968.235483,6166.035566 3099.207496,6154.058260 3152.756862,6156.440471 3177.277238,6159.165891 3190.698912,6156.274569 3206.919284,6150.134196 3212.640507,6144.114359 3380.238917,6110.137752 3431.755548,6081.998408 3508.048189,6066.483566 3526.518633,6048.654429 3559.563977,6037.757418 3574.772265,6042.073019 3715.181490,6000.071383 3767.021779,5989.455673"/>
    <poly id="321648995" type="amenity" color="237,199,199" fill="1" layer="-1.00" shape="3213.775480,6122.037661 3195.695014,6006.923537 3150.292442,6011.487883 3154.335346,5830.057064 3289.932237,5823.003292 3372.580643,5813.731766 3390.961571,5810.692974 3403.404526,5820.086095 3440.182103,5885.885191 3527.247534,6045.042128 3505.735935,6064.809205 3468.076834,6068.269247 3461.279802,6059.957493 3449.467878,6060.279843 3371.785800,6096.682356 3312.972364,6107.472544 3213.775480,6122.037661"/>
    <poly id="321649003" type="amenity" color="237,199,199" fill="1" layer="-1.00" shape="3394.030076,5914.990981 3408.243112,5913.773664 3407.090245,5900.560119 3392.887267,5901.777588 3394.030076,5914.990981"/>
    <poly id="321649003#1" type="building" color="255,230,230" fill="1" layer="-1.00" shape="3394.030076,5914.990981 3408.243112,5913.773664 3407.090245,5900.560119 3392.887267,5901.777588 3394.030076,5914.990981"/>
    <poly id="322472943" type="building" color="255,230,230" fill="1" layer="-1.00" shape="3392.229431,6039.758801 3401.919673,6035.116766 3406.213437,6042.405017 3412.309909,6038.928185 3408.427616,6031.745791 3410.798205,6030.861511 3409.101175,6027.789178 3422.104368,6020.548446 3439.694048,6056.344630 3427.959171,6060.956132 3423.772261,6053.259505 3420.513339,6054.939374 3417.847107,6049.980051 3402.015655,6058.397401 3392.229431,6039.758801"/>
    <poly id="322472944" type="building" color="255,230,230" fill="1" layer="-1.00" shape="3402.015655,6058.397401 3404.691961,6063.356871 3420.513339,6054.939374 3417.847107,6049.980051 3402.015655,6058.397401"/>
    <poly id="322472946" type="building" color="255,230,230" fill="1" layer="-1.00" shape="3478.205579,6038.969588 3473.690937,6030.957811 3465.183055,6036.027402 3457.627706,6022.496707 3466.463014,6017.764399 3460.068571,6005.425514 3451.394413,6010.160231 3444.670217,5997.639154 3453.188030,5991.904893 3449.396391,5984.723839 3433.708663,5992.954943 3435.756554,5996.819198 3432.669670,5998.446231 3441.763234,6015.567639 3439.255256,6016.881986 3445.761826,6029.133894 3447.833230,6028.045714 3456.760155,6044.854407 3460.100653,6043.109283 3462.334939,6047.308726 3478.205579,6038.969588"/>
    <poly id="322472947" type="building" color="255,230,230" fill="1" layer="-1.00" shape="3449.396391,5984.723839 3456.911111,5980.049380 3485.601553,6034.825216 3478.205579,6038.969588 3473.690937,6030.957811 3466.463014,6017.764399 3460.068571,6005.425514 3453.188030,5991.904893 3449.396391,5984.723839"/>
    <poly id="322472948" type="building" color="255,230,230" fill="1" layer="-1.00" shape="3200.768874,5908.464321 3198.500745,5890.979455 3280.995574,5878.458666 3282.044057,5887.194294 3277.314080,5888.209626 3277.978012,5893.006104 3209.252608,5902.308362 3211.250249,5916.985949 3219.045619,5915.783598 3218.103444,5910.728136 3222.668455,5909.965166 3223.610793,5915.009551 3226.098957,5917.728004 3230.866070,5916.923729 3230.691538,5915.115081 3352.716711,5897.976330 3354.798714,5894.151521 3354.157422,5890.540940 3356.702887,5890.091378 3357.233389,5893.024424 3364.324399,5891.767329 3363.822793,5888.923355 3365.663689,5889.781813 3367.192033,5888.630121 3367.571991,5886.120616 3366.413533,5884.762652 3363.369246,5884.883451 3363.344135,5886.567245 3352.890981,5888.317123 3352.098285,5883.374678 3295.981835,5890.925536 3295.737307,5887.054954 3289.792060,5887.819483 3288.274982,5876.727898 3360.463816,5864.884945 3359.731584,5855.888102 3287.285947,5866.707870 3281.163354,5867.879721 3169.580121,5884.687183 3172.328532,5915.918448 3191.608649,5912.017475 3200.768874,5908.464321"/>
    <poly id="323256022" type="building" color="255,230,230" fill="1" layer="-1.00" shape="3306.695224,5924.425134 3304.277799,5908.178978 3349.399133,5901.561113 3351.632904,5916.607896 3346.433172,5917.372438 3346.103777,5915.140435 3332.806823,5917.080600 3333.319658,5920.523063 3306.695224,5924.425134"/>
    <poly id="368626145" type="building" color="255,230,230" fill="1" layer="-1.00" shape="3280.791705,6102.294785 3318.544420,6096.597458 3315.157535,6074.431169 3272.093644,6080.935733 3270.551324,6070.863134 3262.958467,6072.001988 3267.153170,6099.454404 3270.162397,6101.006153 3272.552281,6100.177538 3274.547876,6097.415116 3272.665924,6085.121443 3278.037471,6084.315120 3280.791705,6102.294785"/>
    <poly id="368626146" type="building" color="255,230,230" fill="1" layer="-1.00" shape="3266.922083,6067.651216 3301.296444,6062.191553 3292.630706,6008.257621 3258.256215,6013.717315 3266.922083,6067.651216"/>
    <poly id="368626147" type="building" color="255,230,230" fill="1" layer="-1.00" shape="3641.061322,6315.256052 3638.019870,6296.308009 3644.745308,6295.233977 3643.943676,6290.224888 3636.491403,6291.398865 3628.357973,6240.375511 3681.332018,6232.025740 3681.810581,6235.057752 3686.698157,6234.277604 3686.016051,6230.034822 3714.088796,6225.590093 3718.264078,6251.579872 3698.310088,6254.749796 3697.535873,6249.929474 3695.516186,6250.253861 3696.456469,6256.096032 3679.420568,6258.822058 3678.147641,6250.969425 3674.885959,6251.485783 3675.651433,6256.217332 3662.664981,6258.294749 3661.530382,6251.297351 3652.956788,6252.676172 3655.650582,6269.270048 3649.944878,6270.193106 3652.277801,6284.643136 3665.253989,6282.576638 3669.772042,6310.577013 3659.754727,6312.166941 3658.473214,6304.214461 3649.526331,6305.632026 3650.826173,6313.706659 3641.061322,6315.256052"/>
    <poly id="443016298" type="residential" color="235,235,227" fill="1" layer="-3.00" shape="3735.517111,6317.919303 3733.788139,6306.879862 3746.925491,6296.051503 3743.951345,6278.001919 3734.469626,6279.477917 3725.177974,6214.298983 3619.846017,6228.858066 3634.725691,6354.307335 3649.360051,6351.833472 3647.007801,6327.887524 3735.517111,6317.919303"/>
    <poly id="735114137" type="building" color="255,230,230" fill="1" layer="-1.00" shape="3608.307475,6200.763958 3624.579775,6197.904552 3620.879666,6177.184952 3624.455414,6176.551390 3622.847625,6167.508197 3624.968704,6167.140992 3622.644759,6154.109357 3611.250926,6156.121975 3609.754062,6147.745246 3619.178232,6146.079933 3618.360052,6141.502723 3599.582711,6144.801177 3603.839875,6168.697987 3596.213670,6170.046675 3597.115059,6175.123729 3603.529146,6173.989622 3608.307475,6200.763958"/>
    <poly id="744877015" type="residential" color="235,235,227" fill="1" layer="-3.00" shape="428.831279,2693.656729 443.350930,2780.203752 521.125712,2768.271448 533.961961,2700.429861 659.905752,2689.039570 674.315152,2707.566272 693.336101,2711.247318 702.210505,2757.392284 691.990354,2784.985966 626.369399,2802.292299 530.713693,2830.359520 532.681603,2858.287409 441.891844,2879.601508 462.274205,2924.375111 591.663178,2890.952844 601.220071,2956.497459 630.191758,2954.308295 604.211352,2842.740512 653.014192,2832.987139 697.332984,2950.065346 670.100432,2973.098930 678.613654,3017.753898 725.411622,3009.312023 725.313140,2970.087958 928.422850,2977.008746 926.150907,3042.379661 798.401496,3040.389471 771.057503,3145.689028 616.909217,3145.760934 623.145107,3230.879193 577.632856,3234.852915 559.667992,3126.405560 487.947273,3129.673325 480.229993,3231.837840 400.201333,3210.098759 411.059227,3149.983933 443.157525,3156.482559 448.255298,3086.532946 377.857493,3078.607959 354.355050,3118.737613 164.308389,3119.961002 133.729832,3099.136993 75.108203,3101.734737 57.583131,3081.268399 54.977290,3018.418876 133.656325,3015.472366 132.636568,2986.738587 52.117147,2977.049350 37.314925,2944.036310 -4.303308,2939.404704 2.962852,3035.639370 -194.858728,3097.138782 -236.530882,3063.854775 -287.125523,3073.607188 -291.471837,3101.398157 -356.787581,3104.941350 -368.862404,3032.125864 -209.030039,2940.407441 -179.311768,2948.465190 -163.247117,2997.839099 -105.928407,2992.030240 -110.476290,2940.642121 -16.131209,2906.258026 85.785076,2904.659796 177.834989,2863.994356 94.839583,2838.934194 -6.990654,2852.510903 -31.684216,2793.071857 -63.794814,2741.922753 -155.931908,2763.764025 -265.042897,2786.665030 -301.455947,2833.974901 -293.677231,2880.158329 -346.327153,2900.185134 -380.489714,2712.936323 -759.735400,2725.734885 -819.049007,2756.358234 -958.769898,2844.188666 -1085.143017,2916.470558 -1248.360847,2744.862585 -1275.860614,2749.093701 -969.982678,3134.380472 -785.456877,3072.886589 -719.072270,3266.033438 -792.172124,3316.288023 -860.581254,3223.904391 -888.084511,3235.336430 -481.409329,3798.430217 -433.177811,3775.756976 -432.372347,3753.055223 -479.664965,3756.984145 -490.826102,3708.535391 -403.365418,3695.255139 -349.215969,3702.694881 -334.743584,3725.874937 -275.099376,3721.362721 -252.833761,3700.836372 -214.913581,3680.539161 -188.046791,3690.549657 -162.633212,3684.196249 -191.300627,3576.923161 -235.363821,3526.053642 -364.448808,3548.241659 -372.964999,3469.140518 -288.071489,3437.918425 -200.920239,3430.086054 -200.561656,3495.085298 -155.100686,3476.627020 -156.965272,3467.026791 -131.674621,3459.463912 -123.558064,3439.827487 -92.551546,3432.769395 -85.488541,3409.394752 -51.038013,3399.728032 -46.788320,3413.651092 -19.080869,3407.575262 -17.568354,3380.673523 5.303364,3373.862113 3.099441,3346.163582 57.129463,3328.839756 246.420588,3288.237460 256.680445,3333.416295 248.694162,3474.644285 279.018281,3600.645588 355.937198,3614.427499 364.083582,3663.508800 420.004041,3658.069640 428.927620,3737.233064 493.546795,3738.414743 484.792753,3625.094623 559.313256,3617.624611 565.853259,3578.487011 422.552712,3557.912210 399.245651,3312.273890 469.549000,3317.627184 465.956265,3420.938104 792.965289,3355.885609 780.373041,3460.504659 712.929985,3482.016032 716.674109,3543.974163 800.742878,3532.014456 799.900093,3489.300325 853.072057,3476.930786 859.070002,3541.802932 920.137264,3536.563393 954.495682,3694.037523 1041.503184,3686.377300 1066.269641,3830.026969 1024.512068,3836.414363 989.803855,3791.738873 934.438834,3803.942546 953.052777,3872.113983 905.646054,3885.132952 879.063693,3816.157369 826.913238,3827.666427 834.763029,3889.928836 731.917225,3896.271505 739.018980,3999.141564 656.225232,3986.256994 635.942896,3912.233541 618.441819,3836.112613 686.850192,3810.493405 687.305039,3772.019792 376.725137,3833.293220 367.254062,3774.940791 270.974555,3791.089323 264.457700,3630.236665 209.014107,3621.024876 198.642418,3648.062614 176.062995,3652.828192 180.269454,3559.054982 149.147321,3384.324393 -78.119551,3434.620544 -77.806852,3473.127390 -130.984264,3482.508894 -65.274203,3568.885208 -74.505160,3606.820176 -88.417973,3613.563449 -63.847773,3790.003375 -159.471629,3806.164520 -201.303287,3699.961791 -229.841385,3707.765311 -233.930246,3814.348385 -306.963240,3824.957821 -348.004215,3789.312129 -426.230625,3831.235243 -493.311019,3844.082174 -895.527293,3921.107933 -943.692409,3930.343966 -1275.803098,3993.955252 -1265.811417,4048.845618 -1387.609965,4081.807646 -1397.760262,4209.508749 -1430.190250,4204.483123 -1424.377435,4266.159813 -1368.543048,4281.597534 -1367.675111,4309.187580 -1470.787608,4305.172153 -1473.705473,4269.574921 -1510.609517,4263.908253 -1513.791267,4330.273743 -1579.023845,4333.413595 -1573.108890,4399.191158 -1633.340683,4406.968792 -1627.240174,4437.814716 -1569.561749,4438.642164 -1564.861239,4535.270151 -1479.764069,4543.388321 -1470.188744,4577.741775 -1377.519010,4572.265171 -1366.160071,4592.041612 -1275.098961,4587.716750 -1272.418706,4548.954579 -1057.485491,4538.546862 -1063.381115,4580.818761 -1174.128350,4594.073701 -1170.612721,4697.831240 -1344.259652,4640.679084 -1346.386878,4667.073256 -1349.759004,4709.082795 -1227.088345,4715.478355 -1236.892321,4767.421361 -1328.283513,4755.054999 -1335.978064,4887.035465 -1284.686261,4907.050025 -1278.529776,4965.795788 -1214.872296,4959.931216 -1229.757070,5093.690530 -1117.838077,5089.615488 -1112.046908,5201.693977 -1146.642531,5203.028907 -1151.286561,5373.722247 -1277.391193,5386.310479 -1282.954681,5347.051483 -1341.038249,5352.166419 -1330.732073,5435.181842 -1479.486940,5472.260632 -1467.622472,5547.930562 -1513.465457,5555.174355 -1533.920230,5509.737942 -1576.106202,5506.586984 -1635.814411,5471.072331 -1696.040745,5475.337680 -1690.478151,5509.189509 -1735.709869,5547.853919 -1786.621395,5553.806190 -1823.732336,5489.115507 -1882.235207,5494.038255 -1887.726096,5437.873072 -1923.222319,5436.072380 -1930.235505,5498.615156 -1966.759988,5501.730100 -2005.192306,5487.754725 -2008.232917,5371.706229 -2068.938245,5381.893944 -2077.825350,5383.382640 -2144.782016,5394.632280 -2101.416996,5504.728572 -2081.107639,5501.987382 -2070.844088,5544.493944 -2065.490291,5620.567216 -2098.328742,5618.927389 -2118.548009,5525.187993 -2200.955665,5546.008168 -2189.522566,5627.376938 -2132.743776,5624.577365 -2124.448898,5673.625585 -2062.601204,5665.847515 -2069.405514,5717.513095 -2118.989286,5718.112173 -2125.155450,5750.109497 -2167.805677,5748.460437 -2186.700517,5912.099268 -2227.137548,5912.089006 -2223.488814,5991.849164 -2202.109713,6066.027471 -2293.698926,6098.492497 -2286.413995,6184.554286 -2168.099806,6170.869283 -2163.674114,6232.447933 -2267.602356,6255.160862 -2260.047974,6297.605880 -2040.544844,6292.325576 -2037.057374,6377.545872 -2096.212758,6383.279663 -2106.003654,6506.787019 -2175.564882,6509.079428 -2340.048288,6493.919305 -2341.790395,6592.558651 -2535.091409,6605.801364 -2572.061736,6676.807469 -2574.445913,6730.154810 -2689.426988,6746.395192 -2687.850126,6782.914431 -2667.519747,6797.368467 -2660.145941,6856.518743 -2703.083706,6863.154524 -2707.549086,6920.438262 -2809.487966,6941.865189 -2803.917244,7317.900909 -2821.708937,7394.004607 -2897.780689,7413.601256 -2892.462122,7470.716263 -2817.522746,7464.620481 -2820.146590,7432.927916 -2739.958679,7424.027752 -2715.097214,7508.127728 -2738.654407,7536.449909 -2727.991426,7569.444383 -2621.149301,7536.732746 -2615.023989,7641.690642 -2527.719755,7639.332179 -2524.441705,7691.864162 -2583.691741,7905.519671 -2723.849427,8228.268867 -2700.176380,8351.175106 -2143.495323,8756.887438 -2035.136449,8753.763783 -1947.181600,8720.739277 -1924.844201,8799.863170 -1961.102781,8813.008434 -1929.793684,8865.959447 -1817.661854,8842.295198 -1837.177156,8770.702028 -1624.312428,8708.152432 -1780.545822,8473.934843 -1698.479866,8442.931253 -1364.687310,8496.134573 -849.862463,8537.820351 -858.887933,8229.148977 -1153.362675,8028.858042 -1225.218296,7870.598719 -1522.329731,7803.435029 -1517.013180,7757.221233 -1336.404071,7770.677710 -1333.325449,7711.501224 -1292.066640,7705.920205 -1285.113471,7673.247621 -1524.562460,7612.298888 -1433.322768,7247.209189 -1362.310124,6953.588737 -602.823095,7144.556776 -198.696231,7250.503039 -45.577321,7315.981053 -62.015423,7403.104508 -87.432942,7404.005856 -87.032135,7461.837453 -200.958446,7501.716282 -234.117815,7496.842604 -276.416831,7506.637733 -303.784424,7582.211133 -311.200364,7644.238183 -362.578849,7646.078148 -362.973553,7690.901364 -330.351150,7723.455401 -293.772078,7706.640359 -155.862735,7785.489636 -154.930531,7772.063452 -106.541771,7767.321856 -60.162983,7635.941474 -47.023621,7639.081486 -33.299808,7605.134741 74.961051,7588.187044 155.474668,7610.099695 161.860139,7584.776267 180.501489,7585.027905 196.615668,7611.944926 198.331408,7649.431164 249.915321,7672.703332 194.992592,7847.224265 148.174070,7834.215723 114.856290,7950.618999 125.716554,8010.842459 172.979013,8047.756780 280.485028,8027.132454 300.010777,8024.738135 302.929296,8006.410595 329.459553,8013.337745 342.800079,7942.478596 398.480640,7940.516304 419.180848,8039.077194 445.782625,8100.020102 496.834713,8172.978905 542.170773,8363.932317 571.453956,8529.996883 523.363679,8544.036288 550.021157,8747.490135 422.261826,8716.314528 395.960041,8680.261388 324.392164,8665.547246 280.232761,8414.315219 253.317586,8274.645459 170.411345,8153.288089 106.527593,8082.214153 -133.288805,7920.041987 -187.296674,7895.184529 -219.849078,7947.912666 -446.505889,7896.460804 -827.841012,8309.510357 -819.825562,8572.152608 -1540.929277,8507.836970 -1701.975991,8474.147438 -1705.833773,8508.759846 -1567.635201,8703.858997 -1664.289452,8737.297370 -1557.219797,8887.713282 -1574.446043,8924.590660 -1763.463506,8981.303751 -1755.645866,9064.216564 -1929.452806,9096.035362 -1926.112142,9150.274996 -1783.636192,9668.431880 -1704.789143,9957.587406 -1660.285058,9947.211204 -1640.636197,10019.094970 -1611.360127,10021.194541 -1604.271512,10060.686458 -1785.958749,10101.273613 -1943.149522,10129.211794 -1957.691527,10242.734041 -1547.488007,10354.796016 -1210.289342,10445.240621 -1203.648364,10578.727518 -1165.028410,10689.790628 -1222.834012,10763.624357 -1195.214628,10778.376089 -1083.562878,10834.863515 -1006.619156,10839.999097 -964.820392,10909.116893 -1005.651753,10943.964261 -977.017248,11051.092875 -915.336418,11066.908462 -899.552965,11165.805381 -926.561567,11178.905531 -924.654345,11230.266355 -949.247172,11266.857911 -969.321048,11697.437398 -1008.331295,11941.842291 -945.392335,12150.111436 -932.757719,12148.911331 -855.731337,12083.227109 -598.178711,11797.150126 -471.850376,11630.078266 -454.256341,11627.200673 -431.949719,11655.227540 -306.740278,11756.052377 -190.274932,11629.346208 -205.231774,11586.347084 -215.128289,11457.940881 -239.055582,11318.747450 -247.131208,11217.170341 -249.333682,11121.607203 -233.426006,11119.779840 -253.934506,10793.530718 -256.156666,10770.651387 -54.454927,10728.251783 -56.582234,10671.513628 198.282886,10708.000957 778.532305,10478.705777 901.108753,10490.707897 1201.488016,10614.985622 1251.143842,10487.147645 1350.690945,10488.065826 1362.510761,10539.352656 1262.332977,10787.469799 1251.326994,10810.541776 888.126020,10655.253080 879.516443,10674.981296 965.812353,10833.213957 1243.145232,11024.685543 1797.392597,11346.036697 1828.354342,11296.768745 1831.458512,11295.241425 1882.970617,11329.013021 1914.988397,11277.146020 1932.171455,11256.581624 1954.441265,11304.467653 2034.678811,11424.015823 2079.746411,11488.882901 2019.238524,11567.295305 2066.573133,11608.994423 2093.435476,11633.714131 2138.356835,11692.086418 2157.524284,11691.806141 2134.264430,11614.409827 2159.569860,11604.293010 2420.900303,11589.342579 2445.413761,11683.223162 2351.872741,11704.224337 2344.860103,11736.983521 2370.367827,11811.422145 2410.724968,11838.714465 2444.292107,11860.775793 1996.955448,12033.068832 1934.648306,12009.695557 1725.922219,11986.588106 1696.873564,11966.711912 1553.757906,12007.060409 1518.988170,11916.575532 1402.229349,11945.770732 1179.426648,12037.595733 1216.840904,12174.067474 1293.340627,12151.554595 1321.107810,12282.510196 1266.245004,12303.193491 1275.143516,12359.190565 1271.825865,12376.526003 1285.009222,12480.463228 1273.488025,12536.379735 1236.548783,12645.591686 1178.280287,12616.165359 1118.817677,12585.081806 1087.039969,12562.540561 1070.453589,12544.301419 1057.857917,12513.578740 1038.812386,12447.116400 1037.423868,12442.276079 1028.061369,12388.998051 1013.811221,12395.258157 1007.909565,12368.069280 938.018378,12393.229671 922.321227,12352.256677 905.493642,12359.176861 878.946952,12302.830867 817.559578,12348.781637 730.307381,12389.065771 637.146449,12422.426928 583.050677,12427.412801 601.262300,12491.169582 672.466978,12460.841489 699.860814,12552.611136 712.880591,12624.922822 769.676502,12642.292465 777.885490,12661.216376 790.802809,12688.597354 810.869876,12704.339138 841.572630,12711.717513 954.175535,12760.836521 999.344604,12780.672441 1033.942036,12788.175322 1049.129987,12793.374771 1064.997401,12798.927764 1075.832170,12802.988123 1083.871438,12806.796635 1213.125308,12869.648547 1300.343873,12907.736107 1356.788712,12929.657077 1414.440863,12952.992265 1635.819216,12971.995731 1969.724610,12966.214640 2104.885810,12971.369654 2221.816780,12919.325447 2198.940217,12885.434776 2229.081416,12847.235690 2215.636194,12724.190928 2282.244580,12682.213016 2305.030618,12581.412997 2335.375468,12474.088487 2395.727234,12393.204406 2496.335426,12324.664735 2572.665726,12300.139899 2815.897066,12294.767745 2842.161970,12323.579921 2957.247030,12337.119300 2967.739166,12279.792211 3175.817915,12424.769074 3242.088652,12481.846965 3264.270579,12696.158236 3356.121847,13109.646809 3393.207637,13139.840986 3447.338881,13131.764607 3491.799985,13146.823134 3529.536871,13222.954775 3638.392455,13176.596601 3861.442226,13074.511356 4260.656890,13066.254088 4500.448133,13012.441061 4701.620120,13014.526653 4961.833809,12997.549657 5092.684834,12961.451125 5378.934481,13080.154126 5548.055387,13099.607567 5725.002442,13100.921234 5991.347606,13016.311737 6054.762739,12805.139688 6209.654593,12822.878640 6201.998756,12884.158728 6362.842224,12889.856808 6348.166244,13028.825515 6490.638556,13134.822949 6555.474666,13247.475986 6578.363135,13252.699170 6595.066693,13154.725467 6625.176028,13143.980829 6623.035692,13232.458377 6654.235065,13228.821830 6704.350511,13277.761330 6723.350380,13275.158285 6733.111753,13218.597308 6790.478037,13196.633188 6771.734944,13085.034473 6771.259134,13048.129541 6806.612348,13031.603512 6807.675929,12988.827223 6800.265634,12913.312447 6810.465300,12908.725196 6806.061197,12891.760608 6771.946941,12886.388505 6779.303044,12835.718975 6787.473824,12813.582754 6823.829275,12810.645443 6839.550212,12771.438420 6888.300438,12768.567961 6880.329960,12723.925662 6937.828086,12717.930844 6936.510542,12648.359153 6893.972571,12591.689340 6830.515463,12591.543848 6830.482837,12556.617976 6829.791391,12525.283209 6865.768234,12510.218243 6860.374993,12458.978048 6712.914652,12182.618152 6674.215201,12201.198998 6613.812669,12121.843251 6639.173861,12059.890443 6613.809862,12035.859585 6642.959558,11951.903327 6633.193962,11906.668957 6602.290202,11899.927993 6615.798613,11800.875329 6578.870923,11790.264532 6541.251558,11835.809656 6525.663920,11843.694857 6509.837375,11925.017034 6428.926103,11887.688961 6454.716415,11817.332387 6483.065345,11823.890161 6505.203209,11777.234484 6454.353217,11739.753354 6438.771868,11782.386725 6373.183711,11771.131013 6287.943001,11703.123245 6540.317291,11248.027172 6215.559915,11077.150663 6099.487942,10975.835276 5897.258368,10860.485781 5652.036234,10671.581576 5446.141684,10538.965466 5304.234981,10420.425897 5268.541525,10365.073518 5213.152652,10342.831219 5152.365519,10270.469436 5088.633777,10215.692269 5013.207452,10176.373500 4942.516260,10088.761319 4896.876746,9978.080918 4883.739379,9953.595346 4858.804413,9926.682960 4792.524568,9853.642159 4797.728856,9818.341349 4720.065643,9749.417782 4668.413019,9716.929619 4652.308620,9683.413692 4614.316715,9662.732090 4600.478475,9633.892902 4549.784116,9550.982646 4498.838735,9492.788758 4458.926690,9452.367183 4436.704850,9421.729220 4426.619864,9417.234372 4399.218348,9367.981587 4340.517143,9266.769583 4326.634923,9230.052114 4304.237340,9190.270660 4278.894717,9142.688963 4261.715616,9116.913653 4133.427503,8960.333207 4014.171049,7930.132390 3998.254721,7776.811059 3995.056605,7726.681021 3984.234077,7667.063062 3959.595094,7599.094421 3949.622635,7506.215654 3937.999642,7413.223575 3949.181474,7406.465850 3937.627140,7384.265663 3936.470576,7371.351102 3940.795608,7316.591426 3938.170797,7303.510853 3963.004856,7258.886170 3972.586412,7250.697329 3983.531121,7223.448940 3984.199489,7215.137778 3993.374036,7197.801762 4029.948444,7101.076924 4088.059325,6973.506254 4026.363095,6943.552662 4030.637012,6928.569845 4028.343959,6901.400323 4043.195424,6901.888567 4044.750141,6888.205740 4114.247676,6902.420573 4121.345378,6861.674468 4141.803380,6794.536169 4072.577079,6777.643913 4078.091284,6729.616615 4055.453722,6602.532317 4183.968096,6578.274373 4285.701365,6618.878185 4438.060481,6322.619221 4587.311479,6004.963475 4682.294005,5822.381089 4782.213444,5566.810864 4884.274505,5337.909999 4744.923702,5273.746338 4728.593478,5260.903081 4728.705621,5191.011267 4750.697192,5101.902529 4880.451961,5081.978766 5014.182958,5109.239872 5048.004258,5041.616410 5074.912870,5043.106813 5118.567429,4954.756320 4927.444516,4943.030561 4906.124389,4920.284062 4819.484265,4964.754888 4781.420428,4964.726311 4752.117525,4952.918202 4745.002010,4940.324085 4739.633417,4930.825390 4732.309696,4911.291995 4722.639222,4825.242605 4670.311811,4822.296764 4483.653619,4882.288463 4462.332968,4811.798523 4473.469358,4803.522399 4465.635538,4760.181463 4587.183672,4734.059756 4581.026493,4684.417128 4600.733532,4679.748784 4582.340849,4628.349283 4658.692892,4606.181911 4646.164125,4533.297292 4612.464100,4422.267655 4585.263224,4357.539686 4536.328982,4276.663585 4559.459295,4271.525688 5374.533593,4089.789687 5427.359299,3995.583552 5570.339276,4034.955150 5634.762228,3819.851317 5691.750846,3719.049551 5563.752771,3671.537069 5628.636999,3587.064270 5756.277836,3637.596816 5781.286411,3560.800413 5260.264876,3414.352799 5245.844040,3450.633930 5286.812848,3584.067825 5225.182630,3611.107219 5195.931818,3586.268916 5147.852192,3543.740748 4989.444115,3566.434921 4928.642210,3549.090001 4918.768123,3469.851821 4832.778423,3492.549502 4809.174081,3425.769982 4752.927506,3374.733184 4620.257411,3411.967195 4546.382855,3338.983316 4463.664278,3361.931816 4474.071607,3431.992019 4491.183452,3515.914172 4479.957469,3616.862928 4424.875660,3654.208698 4361.837206,3679.901151 4332.261826,3664.544522 4307.748323,3688.653441 4350.744042,3762.625187 4322.831846,3860.975168 4342.207603,3897.342055 4194.155371,3974.481477 4224.248823,4089.832289 3945.789091,4183.116806 3965.541250,4232.751593 3825.906933,4272.880071 3806.364159,4248.998706 3744.018841,4263.635108 3725.968147,4209.317085 3765.821791,4191.497118 3753.267339,4146.967267 3700.589762,4136.264146 3665.815273,4031.149429 3592.477601,4056.514221 3580.291497,4013.585617 3607.414938,3990.001989 3600.881828,3957.174073 3565.535055,3836.295388 3501.633603,3842.344955 3490.682185,3749.009672 3593.349280,3691.451000 3641.403546,3681.907811 3620.116582,3595.199152 3485.786155,3607.699536 3260.456131,3685.990619 322