<?xml version="1.0" encoding="UTF-8"?>

<!-- generated on 06/23/20 20:06:48 by Eclipse SUMO netconvert Version 1.3.1
<configuration xmlns:xsi="http://www.w3.org/2001/XMLSchema-instance" xsi:noNamespaceSchemaLocation="http://sumo.dlr.de/xsd/netconvertConfiguration.xsd">

    <input>
        <osm-files value="map.osm"/>
    </input>

    <output>
        <output-file value="map.net.xml"/>
        <output.street-names value="true"/>
    </output>

    <projection>
        <proj.utm value="true"/>
    </projection>

    <processing>
        <lefthand value="true"/>
    </processing>

</configuration>
-->

<net version="1.3" junctionCornerDetail="5" lefthand="true" limitTurnSpeed="5.50" xmlns:xsi="http://www.w3.org/2001/XMLSchema-instance" xsi:noNamespaceSchemaLocation="http://sumo.dlr.de/xsd/net_file.xsd">

    <location netOffset="-698068.77,-2791161.28" convBoundary="0.00,-0.00,4953.69,6604.09" origBoundary="82.966196,25.223491,83.016044,25.282768" projParameter="+proj=utm +zone=44 +ellps=WGS84 +datum=WGS84 +units=m +no_defs"/>

    <type id="highway.bridleway" priority="1" numLanes="1" speed="2.78" allow="pedestrian" oneway="1" width="2.00"/>
    <type id="highway.bus_guideway" priority="1" numLanes="1" speed="27.78" allow="bus" oneway="1"/>
    <type id="highway.cycleway" priority="1" numLanes="1" speed="8.33" allow="bicycle" oneway="0" width="1.00"/>
    <type id="highway.footway" priority="1" numLanes="1" speed="2.78" allow="pedestrian" oneway="1" width="2.00"/>
    <type id="highway.ford" priority="1" numLanes="1" speed="2.78" allow="army" oneway="0"/>
    <type id="highway.living_street" priority="2" numLanes="1" speed="2.78" disallow="tram rail_urban rail rail_electric rail_fast ship" oneway="0"/>
    <type id="highway.motorway" priority="14" numLanes="2" speed="39.44" allow="private emergency authority army vip passenger hov taxi bus coach delivery truck trailer motorcycle evehicle custom1 custom2" oneway="1"/>
    <type id="highway.motorway_link" priority="9" numLanes="1" speed="22.22" allow="private emergency authority army vip passenger hov taxi bus coach delivery truck trailer motorcycle evehicle custom1 custom2" oneway="1"/>
    <type id="highway.path" priority="1" numLanes="1" speed="2.78" allow="pedestrian bicycle" oneway="1" width="2.00"/>
    <type id="highway.pedestrian" priority="1" numLanes="1" speed="2.78" allow="pedestrian" oneway="1" width="2.00"/>
    <type id="highway.primary" priority="12" numLanes="2" speed="27.78" disallow="tram rail_urban rail rail_electric rail_fast ship" oneway="0"/>
    <type id="highway.primary_link" priority="7" numLanes="1" speed="22.22" disallow="tram rail_urban rail rail_electric rail_fast ship" oneway="0"/>
    <type id="highway.raceway" priority="15" numLanes="2" speed="83.33" allow="vip" oneway="0"/>
    <type id="highway.residential" priority="3" numLanes="1" speed="13.89" disallow="tram rail_urban rail rail_electric rail_fast ship" oneway="0"/>
    <type id="highway.secondary" priority="11" numLanes="2" speed="27.78" disallow="tram rail_urban rail rail_electric rail_fast ship" oneway="0"/>
    <type id="highway.secondary_link" priority="6" numLanes="1" speed="22.22" disallow="tram rail_urban rail rail_electric rail_fast ship" oneway="0"/>
    <type id="highway.service" priority="1" numLanes="1" speed="5.56" allow="pedestrian delivery bicycle" oneway="0"/>
    <type id="highway.stairs" priority="1" numLanes="1" speed="1.39" allow="pedestrian" oneway="1" width="2.00"/>
    <type id="highway.step" priority="1" numLanes="1" speed="1.39" allow="pedestrian" oneway="1" width="2.00"/>
    <type id="highway.steps" priority="1" numLanes="1" speed="1.39" allow="pedestrian" oneway="1" width="2.00"/>
    <type id="highway.tertiary" priority="10" numLanes="1" speed="22.22" disallow="tram rail_urban rail rail_electric rail_fast ship" oneway="0"/>
    <type id="highway.tertiary_link" priority="5" numLanes="1" speed="22.22" disallow="tram rail_urban rail rail_electric rail_fast ship" oneway="0"/>
    <type id="highway.track" priority="1" numLanes="1" speed="5.56" disallow="tram rail_urban rail rail_electric rail_fast ship" oneway="0"/>
    <type id="highway.trunk" priority="13" numLanes="2" speed="27.78" disallow="pedestrian bicycle tram rail_urban rail rail_electric rail_fast ship" oneway="0"/>
    <type id="highway.trunk_link" priority="8" numLanes="1" speed="22.22" disallow="pedestrian bicycle tram rail_urban rail rail_electric rail_fast ship" oneway="0"/>
    <type id="highway.unclassified" priority="4" numLanes="1" speed="13.89" disallow="tram rail_urban rail rail_electric rail_fast ship" oneway="0"/>
    <type id="highway.unsurfaced" priority="1" numLanes="1" speed="8.33" disallow="tram rail_urban rail rail_electric rail_fast ship" oneway="0"/>
    <type id="railway.highspeed" priority="21" numLanes="1" speed="69.44" allow="rail_fast" oneway="1"/>
    <type id="railway.light_rail" priority="19" numLanes="1" speed="27.78" allow="rail_urban" oneway="1"/>
    <type id="railway.preserved" priority="16" numLanes="1" speed="27.78" allow="rail" oneway="1"/>
    <type id="railway.rail" priority="20" numLanes="1" speed="44.44" allow="rail" oneway="1"/>
    <type id="railway.subway" priority="18" numLanes="1" speed="27.78" allow="rail_urban" oneway="1"/>
    <type id="railway.tram" priority="17" numLanes="1" speed="13.89" allow="tram" oneway="1"/>

    <edge id=":292618642_0" function="internal">
        <lane id=":292618642_0_0" index="0" allow="pedestrian delivery bicycle" speed="3.65" length="4.67" shape="3389.94,5801.36 3389.53,5799.98 3388.88,5799.36 3388.00,5799.51 3386.88,5800.42"/>
    </edge>
    <edge id=":292620950_0" function="internal">
        <lane id=":292620950_0_0" index="0" disallow="tram rail_urban rail rail_electric rail_fast ship" speed="15.05" length="9.29" shape="3571.16,6073.46 3570.42,6070.79 3569.86,6068.91 3569.72,6067.04 3570.23,6064.40"/>
    </edge>
    <edge id=":292620950_1" function="internal">
        <lane id=":292620950_1_0" index="0" disallow="tram rail_urban rail rail_electric rail_fast ship" speed="10.35" length="10.00" shape="3564.37,6072.18 3566.37,6070.80 3568.02,6069.04 3569.30,6066.91 3570.23,6064.40"/>
    </edge>
    <edge id=":292639512_0" function="internal">
        <lane id=":292639512_0_0" index="0" disallow="tram rail_urban rail rail_electric rail_fast ship" speed="5.46" length="9.89" shape="3632.92,6492.56 3630.76,6494.91 3629.09,6495.44 3627.92,6494.14 3627.24,6491.02"/>
    </edge>
    <edge id=":292639512_1" function="internal">
        <lane id=":292639512_1_0" index="0" disallow="tram rail_urban rail rail_electric rail_fast ship" speed="3.65" length="4.67" shape="3632.92,6492.56 3632.85,6494.00 3633.25,6494.80 3634.14,6494.95 3635.49,6494.46"/>
    </edge>
    <edge id=":292639512_2" function="internal">
        <lane id=":292639512_2_0" index="0" disallow="tram rail_urban rail rail_electric rail_fast ship" speed="13.54" length="15.91" shape="3629.13,6508.39 3629.34,6503.57 3630.87,6500.08 3633.12,6497.26 3635.49,6494.46"/>
    </edge>
    <edge id=":292639512_3" function="internal">
        <lane id=":292639512_3_0" index="0" disallow="tram rail_urban rail rail_electric rail_fast ship" speed="27.78" length="17.49" shape="3629.13,6508.39 3627.24,6491.02"/>
        <lane id=":292639512_3_1" index="1" disallow="tram rail_urban rail rail_electric rail_fast ship" speed="27.78" length="17.49" shape="3625.96,6508.76 3624.06,6491.35"/>
    </edge>
    <edge id=":292666853_0" function="internal">
        <lane id=":292666853_0_0" index="0" allow="pedestrian delivery bicycle" speed="3.65" length="4.67" shape="3204.51,6099.13 3203.38,6098.23 3202.50,6098.09 3201.85,6098.71 3201.46,6100.10"/>
    </edge>
    <edge id=":292679620_0" function="internal">
        <lane id=":292679620_0_0" index="0" disallow="tram rail_urban rail rail_electric rail_fast ship" speed="7.47" length="10.29" shape="3784.20,5996.00 3781.50,5995.74 3779.35,5994.71 3777.76,5992.90 3776.72,5990.33"/>
    </edge>
    <edge id=":292679620_1" function="internal">
        <lane id=":292679620_1_0" index="0" disallow="tram rail_urban rail rail_electric rail_fast ship" speed="22.22" length="14.87" shape="3784.20,5996.00 3780.48,5996.22 3776.79,5996.58 3773.12,5997.09 3769.45,5997.74"/>
    </edge>
    <edge id=":292679620_2" function="internal">
        <lane id=":292679620_2_0" index="0" disallow="tram rail_urban rail rail_electric rail_fast ship" speed="6.96" length="12.14" shape="3784.20,5996.00 3780.27,5996.57 3777.69,5997.90 3776.47,5999.99 3776.62,6002.83"/>
    </edge>
    <edge id=":292679620_3" function="internal">
        <lane id=":292679620_3_0" index="0" disallow="tram rail_urban rail rail_electric rail_fast ship" speed="22.22" length="12.09" shape="3779.72,6002.04 3776.72,5990.33"/>
    </edge>
    <edge id=":292679620_4" function="internal">
        <lane id=":292679620_4_0" index="0" disallow="tram rail_urban rail rail_electric rail_fast ship" speed="7.68" length="4.46" shape="3779.72,6002.04 3778.50,5999.51 3777.17,5998.53"/>
    </edge>
    <edge id=":292679620_5" function="internal">
        <lane id=":292679620_5_0" index="0" disallow="tram rail_urban rail rail_electric rail_fast ship" speed="3.65" length="2.34" shape="3779.72,6002.04 3778.64,6001.07 3777.77,6000.88"/>
    </edge>
    <edge id=":292679620_9" function="internal">
        <lane id=":292679620_9_0" index="0" disallow="tram rail_urban rail rail_electric rail_fast ship" speed="7.68" length="7.98" shape="3777.17,5998.53 3776.38,5997.95 3773.36,5997.36 3769.45,5997.74"/>
    </edge>
    <edge id=":292679620_10" function="internal">
        <lane id=":292679620_10_0" index="0" disallow="tram rail_urban rail rail_electric rail_fast ship" speed="3.65" length="2.34" shape="3777.77,6000.88 3777.09,6001.47 3776.62,6002.83"/>
    </edge>
    <edge id=":292679620_6" function="internal">
        <lane id=":292679620_6_0" index="0" disallow="tram rail_urban rail rail_electric rail_fast ship" speed="6.39" length="9.04" shape="3773.62,5991.12 3773.89,5993.60 3773.28,5995.53 3771.80,5996.91 3769.45,5997.74"/>
    </edge>
    <edge id=":292679620_7" function="internal">
        <lane id=":292679620_7_0" index="0" disallow="tram rail_urban rail rail_electric rail_fast ship" speed="22.22" length="12.09" shape="3773.62,5991.12 3776.62,6002.83"/>
    </edge>
    <edge id=":292679620_8" function="internal">
        <lane id=":292679620_8_0" index="0" disallow="tram rail_urban rail rail_electric rail_fast ship" speed="3.65" length="2.34" shape="3773.62,5991.12 3774.69,5992.08 3775.57,5992.27"/>
    </edge>
    <edge id=":292679620_11" function="internal">
        <lane id=":292679620_11_0" index="0" disallow="tram rail_urban rail rail_electric rail_fast ship" speed="3.65" length="2.34" shape="3775.57,5992.27 3776.24,5991.69 3776.72,5990.33"/>
    </edge>
    <edge id=":292692741_0" function="internal">
        <lane id=":292692741_0_0" index="0" disallow="tram rail_urban rail rail_electric rail_fast ship" speed="3.65" length="4.67" shape="4194.05,6153.34 4195.12,6152.37 4195.40,6151.52 4194.88,6150.79 4193.58,6150.17"/>
    </edge>
    <edge id=":292692742_0" function="internal">
        <lane id=":292692742_0_0" index="0" disallow="tram rail_urban rail rail_electric rail_fast ship" speed="22.22" length="14.77" shape="3856.26,6201.33 3854.42,6204.57 3852.52,6207.72 3850.47,6210.76 3848.18,6213.67"/>
    </edge>
    <edge id=":292692742_1" function="internal">
        <lane id=":292692742_1_0" index="0" disallow="tram rail_urban rail rail_electric rail_fast ship" speed="7.39" length="6.50" shape="3856.26,6201.33 3854.35,6206.12 3854.53,6207.46"/>
    </edge>
    <edge id=":292692742_2" function="internal">
        <lane id=":292692742_2_0" index="0" disallow="tram rail_urban rail rail_electric rail_fast ship" speed="3.65" length="2.34" shape="3856.26,6201.33 3856.37,6202.77 3856.87,6203.51"/>
    </edge>
    <edge id=":292692742_9" function="internal">
        <lane id=":292692742_9_0" index="0" disallow="tram rail_urban rail rail_electric rail_fast ship" speed="7.39" length="10.54" shape="3854.53,6207.46 3854.79,6209.46 3857.58,6211.34 3862.71,6211.78"/>
    </edge>
    <edge id=":292692742_10" function="internal">
        <lane id=":292692742_10_0" index="0" disallow="tram rail_urban rail rail_electric rail_fast ship" speed="3.65" length="2.34" shape="3856.87,6203.51 3857.77,6203.55 3859.05,6202.90"/>
    </edge>
    <edge id=":292692742_3" function="internal">
        <lane id=":292692742_3_0" index="0" disallow="tram rail_urban rail rail_electric rail_fast ship" speed="5.64" length="9.28" shape="3862.57,6208.58 3859.77,6208.35 3858.25,6207.32 3858.01,6205.50 3859.05,6202.90"/>
    </edge>
    <edge id=":292692742_4" function="internal">
        <lane id=":292692742_4_0" index="0" disallow="tram rail_urban rail rail_electric rail_fast ship" speed="12.65" length="15.65" shape="3862.57,6208.58 3857.75,6209.08 3853.75,6210.10 3850.56,6211.63 3848.18,6213.67"/>
    </edge>
    <edge id=":292692742_5" function="internal">
        <lane id=":292692742_5_0" index="0" disallow="tram rail_urban rail rail_electric rail_fast ship" speed="3.65" length="4.67" shape="3862.57,6208.58 3861.41,6209.44 3861.04,6210.25 3861.48,6211.03 3862.71,6211.78"/>
    </edge>
    <edge id=":292692742_6" function="internal">
        <lane id=":292692742_6_0" index="0" disallow="tram rail_urban rail rail_electric rail_fast ship" speed="11.58" length="13.05" shape="3850.60,6215.76 3852.51,6214.17 3855.16,6212.98 3858.56,6212.18 3862.71,6211.78"/>
    </edge>
    <edge id=":292692742_7" function="internal">
        <lane id=":292692742_7_0" index="0" disallow="tram rail_urban rail rail_electric rail_fast ship" speed="22.22" length="15.41" shape="3850.60,6215.76 3852.96,6212.76 3855.13,6209.54 3857.16,6206.21 3859.05,6202.90"/>
    </edge>
    <edge id=":292692742_8" function="internal">
        <lane id=":292692742_8_0" index="0" disallow="tram rail_urban rail rail_electric rail_fast ship" speed="3.65" length="2.34" shape="3850.60,6215.76 3850.78,6214.32 3850.43,6213.50"/>
    </edge>
    <edge id=":292692742_11" function="internal">
        <lane id=":292692742_11_0" index="0" disallow="tram rail_urban rail rail_electric rail_fast ship" speed="3.65" length="2.34" shape="3850.43,6213.50 3849.57,6213.28 3848.18,6213.67"/>
    </edge>
    <edge id=":292692768_0" function="internal">
        <lane id=":292692768_0_0" index="0" disallow="tram rail_urban rail rail_electric rail_fast ship" speed="3.65" length="4.67" shape="4039.87,6065.98 4041.04,6065.13 4041.41,6064.31 4040.97,6063.53 4039.74,6062.78"/>
    </edge>
    <edge id=":292692911_0" function="internal">
        <lane id=":292692911_0_0" index="0" disallow="tram rail_urban rail rail_electric rail_fast ship" speed="22.22" length="14.35" shape="3889.58,6094.08 3889.19,6108.43"/>
    </edge>
    <edge id=":292692911_1" function="internal">
        <lane id=":292692911_1_0" index="0" disallow="tram rail_urban rail rail_electric rail_fast ship" speed="7.88" length="5.87" shape="3889.58,6094.08 3890.07,6098.05 3891.03,6099.66"/>
    </edge>
    <edge id=":292692911_2" function="internal">
        <lane id=":292692911_2_0" index="0" disallow="tram rail_urban rail rail_electric rail_fast ship" speed="3.65" length="2.34" shape="3889.58,6094.08 3890.35,6095.30 3891.15,6095.72"/>
    </edge>
    <edge id=":292692911_9" function="internal">
        <lane id=":292692911_9_0" index="0" disallow="tram rail_urban rail rail_electric rail_fast ship" speed="7.88" length="8.58" shape="3891.03,6099.66 3891.72,6100.83 3894.54,6102.41 3898.52,6102.79"/>
    </edge>
    <edge id=":292692911_10" function="internal">
        <lane id=":292692911_10_0" index="0" disallow="tram rail_urban rail rail_electric rail_fast ship" speed="3.65" length="2.34" shape="3891.15,6095.72 3891.95,6095.33 3892.78,6094.15"/>
    </edge>
    <edge id=":292692911_3" function="internal">
        <lane id=":292692911_3_0" index="0" disallow="tram rail_urban rail rail_electric rail_fast ship" speed="6.36" length="9.04" shape="3898.37,6099.59 3895.88,6099.35 3894.12,6098.37 3893.08,6096.63 3892.78,6094.15"/>
    </edge>
    <edge id=":292692911_4" function="internal">
        <lane id=":292692911_4_0" index="0" disallow="tram rail_urban rail rail_electric rail_fast ship" speed="8.27" length="14.28" shape="3898.37,6099.59 3894.46,6100.30 3891.63,6102.01 3889.87,6104.72 3889.19,6108.43"/>
    </edge>
    <edge id=":292692911_5" function="internal">
        <lane id=":292692911_5_0" index="0" disallow="tram rail_urban rail rail_electric rail_fast ship" speed="3.65" length="4.67" shape="3898.37,6099.59 3897.21,6100.45 3896.85,6101.26 3897.28,6102.04 3898.52,6102.79"/>
    </edge>
    <edge id=":292692911_6" function="internal">
        <lane id=":292692911_6_0" index="0" disallow="tram rail_urban rail rail_electric rail_fast ship" speed="6.83" length="9.42" shape="3892.39,6108.54 3892.84,6106.13 3894.01,6104.37 3895.91,6103.25 3898.52,6102.79"/>
    </edge>
    <edge id=":292692911_7" function="internal">
        <lane id=":292692911_7_0" index="0" disallow="tram rail_urban rail rail_electric rail_fast ship" speed="22.22" length="14.40" shape="3892.39,6108.54 3892.78,6094.15"/>
    </edge>
    <edge id=":292692911_8" function="internal">
        <lane id=":292692911_8_0" index="0" disallow="tram rail_urban rail rail_electric rail_fast ship" speed="3.65" length="2.34" shape="3892.39,6108.54 3891.63,6107.31 3890.84,6106.89"/>
    </edge>
    <edge id=":292692911_11" function="internal">
        <lane id=":292692911_11_0" index="0" disallow="tram rail_urban rail rail_electric rail_fast ship" speed="3.65" length="2.34" shape="3890.84,6106.89 3890.03,6107.26 3889.19,6108.43"/>
    </edge>
    <edge id=":292692970_0" function="internal">
        <lane id=":292692970_0_0" index="0" disallow="tram rail_urban rail rail_electric rail_fast ship" speed="6.02" length="9.07" shape="3899.13,6058.20 3896.58,6058.61 3894.71,6058.04 3893.54,6056.49 3893.05,6053.95"/>
    </edge>
    <edge id=":292692970_1" function="internal">
        <lane id=":292692970_1_0" index="0" disallow="tram rail_urban rail rail_electric rail_fast ship" speed="9.29" length="14.65" shape="3899.13,6058.20 3895.24,6059.88 3892.44,6062.15 3890.73,6065.00 3890.11,6068.43"/>
    </edge>
    <edge id=":292692970_2" function="internal">
        <lane id=":292692970_2_0" index="0" disallow="tram rail_urban rail rail_electric rail_fast ship" speed="3.65" length="4.67" shape="3899.13,6058.20 3898.23,6059.32 3898.08,6060.20 3898.71,6060.85 3900.09,6061.25"/>
    </edge>
    <edge id=":292692970_3" function="internal">
        <lane id=":292692970_3_0" index="0" disallow="tram rail_urban rail rail_electric rail_fast ship" speed="7.99" length="10.64" shape="3893.31,6068.49 3893.77,6066.11 3895.06,6064.11 3897.16,6062.49 3900.09,6061.25"/>
    </edge>
    <edge id=":292692970_4" function="internal">
        <lane id=":292692970_4_0" index="0" disallow="tram rail_urban rail rail_electric rail_fast ship" speed="22.22" length="14.55" shape="3893.31,6068.49 3893.05,6053.95"/>
    </edge>
    <edge id=":292692970_5" function="internal">
        <lane id=":292692970_5_0" index="0" disallow="tram rail_urban rail rail_electric rail_fast ship" speed="3.65" length="2.34" shape="3893.31,6068.49 3892.53,6067.28 3891.74,6066.86"/>
    </edge>
    <edge id=":292692970_9" function="internal">
        <lane id=":292692970_9_0" index="0" disallow="tram rail_urban rail rail_electric rail_fast ship" speed="3.65" length="2.34" shape="3891.74,6066.86 3890.93,6067.25 3890.11,6068.43"/>
    </edge>
    <edge id=":292692970_6" function="internal">
        <lane id=":292692970_6_0" index="0" disallow="tram rail_urban rail rail_electric rail_fast ship" speed="22.22" length="14.33" shape="3889.85,6054.10 3890.11,6068.43"/>
    </edge>
    <edge id=":292692970_7" function="internal">
        <lane id=":292692970_7_0" index="0" disallow="tram rail_urban rail rail_electric rail_fast ship" speed="7.62" length="5.80" shape="3889.85,6054.10 3890.67,6058.38 3891.55,6059.53"/>
    </edge>
    <edge id=":292692970_8" function="internal">
        <lane id=":292692970_8_0" index="0" disallow="tram rail_urban rail rail_electric rail_fast ship" speed="3.65" length="2.34" shape="3889.85,6054.10 3890.71,6055.26 3891.53,6055.62"/>
    </edge>
    <edge id=":292692970_10" function="internal">
        <lane id=":292692970_10_0" index="0" disallow="tram rail_urban rail rail_electric rail_fast ship" speed="7.62" length="9.47" shape="3891.55,6059.53 3892.65,6060.99 3895.79,6061.95 3900.09,6061.25"/>
    </edge>
    <edge id=":292692970_11" function="internal">
        <lane id=":292692970_11_0" index="0" disallow="tram rail_urban rail rail_electric rail_fast ship" speed="3.65" length="2.34" shape="3891.53,6055.62 3892.31,6055.19 3893.05,6053.95"/>
    </edge>
    <edge id=":292692972_0" function="internal">
        <lane id=":292692972_0_0" index="0" disallow="tram rail_urban rail rail_electric rail_fast ship" speed="5.80" length="9.15" shape="3984.36,6069.23 3982.01,6070.53 3980.12,6070.56 3978.69,6069.33 3977.72,6066.83"/>
    </edge>
    <edge id=":292692972_1" function="internal">
        <lane id=":292692972_1_0" index="0" disallow="tram rail_urban rail rail_electric rail_fast ship" speed="13.89" length="14.95" shape="3984.36,6069.23 3972.58,6078.43"/>
    </edge>
    <edge id=":292692972_2" function="internal">
        <lane id=":292692972_2_0" index="0" disallow="tram rail_urban rail rail_electric rail_fast ship" speed="3.65" length="2.34" shape="3984.36,6069.23 3983.88,6070.59 3984.04,6071.47"/>
    </edge>
    <edge id=":292692972_9" function="internal">
        <lane id=":292692972_9_0" index="0" disallow="tram rail_urban rail rail_electric rail_fast ship" speed="3.65" length="2.34" shape="3984.04,6071.47 3984.84,6071.87 3986.28,6071.79"/>
    </edge>
    <edge id=":292692972_3" function="internal">
        <lane id=":292692972_3_0" index="0" disallow="tram rail_urban rail rail_electric rail_fast ship" speed="13.89" length="14.79" shape="3974.62,6080.89 3986.28,6071.79"/>
    </edge>
    <edge id=":292692972_4" function="internal">
        <lane id=":292692972_4_0" index="0" disallow="tram rail_urban rail rail_electric rail_fast ship" speed="10.13" length="5.24" shape="3974.62,6080.89 3976.83,6078.35 3977.51,6076.61"/>
    </edge>
    <edge id=":292692972_5" function="internal">
        <lane id=":292692972_5_0" index="0" disallow="tram rail_urban rail rail_electric rail_fast ship" speed="3.65" length="2.34" shape="3974.62,6080.89 3975.03,6079.51 3974.83,6078.64"/>
    </edge>
    <edge id=":292692972_10" function="internal">
        <lane id=":292692972_10_0" index="0" disallow="tram rail_urban rail rail_electric rail_fast ship" speed="10.13" length="9.94" shape="3977.51,6076.61 3978.08,6075.15 3978.38,6071.31 3977.72,6066.83"/>
    </edge>
    <edge id=":292692972_11" function="internal">
        <lane id=":292692972_11_0" index="0" disallow="tram rail_urban rail rail_electric rail_fast ship" speed="3.65" length="2.34" shape="3974.83,6078.64 3974.01,6078.28 3972.58,6078.43"/>
    </edge>
    <edge id=":292692972_6" function="internal">
        <lane id=":292692972_6_0" index="0" disallow="tram rail_urban rail rail_electric rail_fast ship" speed="8.92" length="11.63" shape="3974.61,6067.57 3975.16,6071.13 3975.01,6074.12 3974.15,6076.56 3972.58,6078.43"/>
    </edge>
    <edge id=":292692972_7" function="internal">
        <lane id=":292692972_7_0" index="0" disallow="tram rail_urban rail rail_electric rail_fast ship" speed="7.47" length="16.08" shape="3974.61,6067.57 3976.31,6071.96 3978.83,6074.13 3982.15,6074.08 3986.28,6071.79"/>
    </edge>
    <edge id=":292692972_8" function="internal">
        <lane id=":292692972_8_0" index="0" disallow="tram rail_urban rail rail_electric rail_fast ship" speed="3.65" length="4.67" shape="3974.61,6067.57 3975.66,6068.55 3976.53,6068.76 3977.22,6068.18 3977.72,6066.83"/>
    </edge>
    <edge id=":292693153_0" function="internal">
        <lane id=":292693153_0_0" index="0" disallow="tram rail_urban rail rail_electric rail_fast ship" speed="5.90" length="9.11" shape="3793.70,6277.09 3791.72,6278.83 3789.86,6279.30 3788.12,6278.49 3786.51,6276.41"/>
    </edge>
    <edge id=":292693153_1" function="internal">
        <lane id=":292693153_1_0" index="0" disallow="tram rail_urban rail rail_electric rail_fast ship" speed="22.22" length="19.18" shape="3793.70,6277.09 3781.64,6292.00"/>
    </edge>
    <edge id=":292693153_2" function="internal">
        <lane id=":292693153_2_0" index="0" disallow="tram rail_urban rail rail_electric rail_fast ship" speed="12.38" length="7.72" shape="3793.70,6277.09 3791.71,6280.65 3790.74,6284.16"/>
    </edge>
    <edge id=":292693153_3" function="internal">
        <lane id=":292693153_3_0" index="0" disallow="tram rail_urban rail rail_electric rail_fast ship" speed="3.65" length="2.34" shape="3793.70,6277.09 3793.53,6278.52 3793.87,6279.35"/>
    </edge>
    <edge id=":292693153_16" function="internal">
        <lane id=":292693153_16_0" index="0" disallow="tram rail_urban rail rail_electric rail_fast ship" speed="12.38" length="11.18" shape="3790.74,6284.16 3790.39,6285.43 3789.92,6290.57 3790.43,6295.24"/>
    </edge>
    <edge id=":292693153_17" function="internal">
        <lane id=":292693153_17_0" index="0" disallow="tram rail_urban rail rail_electric rail_fast ship" speed="3.65" length="2.34" shape="3793.87,6279.35 3794.74,6279.57 3796.13,6279.18"/>
    </edge>
    <edge id=":292693153_4" function="internal">
        <lane id=":292693153_4_0" index="0" disallow="tram rail_urban rail rail_electric rail_fast ship" speed="11.46" length="16.11" shape="3793.53,6294.45 3792.79,6289.96 3792.97,6285.91 3794.09,6282.32 3796.13,6279.18"/>
    </edge>
    <edge id=":292693153_5" function="internal">
        <lane id=":292693153_5_0" index="0" disallow="tram rail_urban rail rail_electric rail_fast ship" speed="13.89" length="19.39" shape="3793.53,6294.45 3792.26,6290.20 3790.49,6285.24 3788.48,6280.38 3786.51,6276.41"/>
    </edge>
    <edge id=":292693153_6" function="internal">
        <lane id=":292693153_6_0" index="0" disallow="tram rail_urban rail rail_electric rail_fast ship" speed="7.38" length="17.96" shape="3793.53,6294.45 3791.50,6289.26 3788.84,6287.13 3785.56,6288.04 3781.64,6292.00"/>
    </edge>
    <edge id=":292693153_7" function="internal">
        <lane id=":292693153_7_0" index="0" disallow="tram rail_urban rail rail_electric rail_fast ship" speed="3.65" length="4.67" shape="3793.53,6294.45 3792.46,6293.48 3791.58,6293.29 3790.91,6293.88 3790.43,6295.24"/>
    </edge>
    <edge id=":292693153_8" function="internal">
        <lane id=":292693153_8_0" index="0" disallow="tram rail_urban rail rail_electric rail_fast ship" speed="5.54" length="9.44" shape="3784.18,6293.96 3786.24,6291.87 3787.96,6291.39 3789.36,6292.51 3790.43,6295.24"/>
    </edge>
    <edge id=":292693153_9" function="internal">
        <lane id=":292693153_9_0" index="0" disallow="tram rail_urban rail rail_electric rail_fast ship" speed="22.22" length="19.01" shape="3784.18,6293.96 3796.13,6279.18"/>
    </edge>
    <edge id=":292693153_10" function="internal">
        <lane id=":292693153_10_0" index="0" disallow="tram rail_urban rail rail_electric rail_fast ship" speed="10.73" length="7.76" shape="3784.18,6293.96 3786.38,6289.85 3787.12,6286.84"/>
    </edge>
    <edge id=":292693153_11" function="internal">
        <lane id=":292693153_11_0" index="0" disallow="tram rail_urban rail rail_electric rail_fast ship" speed="3.65" length="2.34" shape="3784.18,6293.96 3784.28,6292.52 3783.89,6291.71"/>
    </edge>
    <edge id=":292693153_18" function="internal">
        <lane id=":292693153_18_0" index="0" disallow="tram rail_urban rail rail_electric rail_fast ship" speed="10.73" length="10.65" shape="3787.12,6286.84 3787.57,6285.02 3787.65,6280.26 3786.51,6276.41"/>
    </edge>
    <edge id=":292693153_19" function="internal">
        <lane id=":292693153_19_0" index="0" disallow="tram rail_urban rail rail_electric rail_fast ship" speed="3.65" length="2.34" shape="3783.89,6291.71 3783.01,6291.54 3781.64,6292.00"/>
    </edge>
    <edge id=":292693153_12" function="internal">
        <lane id=":292693153_12_0" index="0" disallow="tram rail_urban rail rail_electric rail_fast ship" speed="9.75" length="15.07" shape="3783.73,6278.00 3784.99,6281.30 3785.06,6284.74 3783.95,6288.31 3781.64,6292.00"/>
    </edge>
    <edge id=":292693153_13" function="internal">
        <lane id=":292693153_13_0" index="0" disallow="tram rail_urban rail rail_electric rail_fast ship" speed="13.89" length="18.53" shape="3783.73,6278.00 3785.65,6281.84 3787.55,6286.43 3789.21,6291.11 3790.43,6295.24"/>
    </edge>
    <edge id=":292693153_14" function="internal">
        <lane id=":292693153_14_0" index="0" disallow="tram rail_urban rail rail_electric rail_fast ship" speed="7.53" length="15.69" shape="3783.73,6278.00 3786.52,6281.59 3789.51,6282.98 3792.72,6282.17 3796.13,6279.18"/>
    </edge>
    <edge id=":292693153_15" function="internal">
        <lane id=":292693153_15_0" index="0" disallow="tram rail_urban rail rail_electric rail_fast ship" speed="3.65" length="4.67" shape="3783.73,6278.00 3785.02,6278.64 3785.91,6278.59 3786.41,6277.85 3786.51,6276.41"/>
    </edge>
    <edge id=":292693158_0" function="internal">
        <lane id=":292693158_0_0" index="0" disallow="tram rail_urban rail rail_electric rail_fast ship" speed="22.22" length="9.51" shape="3676.54,6017.34 3667.31,6019.63"/>
    </edge>
    <edge id=":292693158_1" function="internal">
        <lane id=":292693158_1_0" index="0" disallow="tram rail_urban rail rail_electric rail_fast ship" speed="5.89" length="7.88" shape="3676.54,6017.34 3673.82,6018.15 3672.04,6019.18 3671.19,6020.43 3671.27,6021.89"/>
    </edge>